.github
.gitignore
.claude
.vscode
test
node_modules
keywords/**
!keywords/field_data.json
!keywords/field_data_zh.json
**/*.ipynb
.antigravity
.worktrees
docs
LS-DYNA Manuals
bin
AGENTS.md
GEMINI.md
DEVELOPMENT.md
images/*.gif
**/*.vsix
src/server/**
src/worker/**
src/core/cache/**
src/core/incremental/**
src/core/project/**
src/client/services/**
